lib/rce_framework_V1_3/src/models/RedeEletrica/assets/arquivos_anarede/CASO_FBA100 (cópia).pwf
(
( Gravacao de .PWF - CART
( Versao do Anarede: 12.00.01
( Data e Hora da Gravacao: 27/06/2025 - 15:16:47                                                           
(
TITU
POS9 - 10=120/11=250/20=373/21=250 =>ESTAVEL FBA=100                            
DCTE
(Mn) ( Val) (Mn) ( Val) (Mn) ( Val) (Mn) ( Val) (Mn) ( Val) (Mn) ( Val) 
BASE   100. DASE   100. TEPA    .01 EXST    .04 TETP     5. TBPA     5.
TLPP     1. TEPR    .01 QLST    .04 TLPR     1. TLPQ     2. TSBZ    .01
TSBA     5. ASTP    .05 VSTP     5. TLVC     .5 TLTC    .01 TSFR  .1E-7
ZMAX   500. TLPV     .5 VDVM   200. VDVN    40. TUDC   .001 TADC    .01
PGER    30. TPST    .02 VFLD    70. ZMIN   .001 HIST    470 LFIT     10
ACIT     30 LFCV      1 DCIT     10 VSIT     10 LPIT     50 LFLP     10
PDIT     10 LCRT     24 LPRT     60 CSTP     5. ASDC     1.
ICIT     30 DMAX      5 FDIV     2. ICMN    .05 VART     5. TSTP     32
ICMV     .5 APAS    90. CPAR    70. VAVT     2. VAVF     5. VMVF    15.
VPVT     2. VPVF     5. VPMF    10. VSVF    20. VINF     1. VSUP     1.
TLSI     0. NDIR    20. STTR     5. TRPT   100. STIR     1. BFPO     1.
LFPO     .1 TLMT     0. TLMF     0. TLMG     0. PARS    10.            
99999
DBAR
(Num)OETGb(   nome   )Gl( V)( A)( Pg)( Qg)( Qn)( Qm)(Bc  )( Pl)( Ql)( Sh)Are(Vf)M(1)(2)(3)(4)(5)(6)(7)(8)(9)(10
    1 L  BCANARIO230   11023-5.6                                           11000                                   
   11 L1 FSABIA---13    1015-12. 250.12.43-100. 100.                       11030                                   
   20 L1 FTUCANO--13     9804.18 373.-33.3-140. 140.                       21030                                   
   21 L1 FGAVIAO--13     9601.52 250.-36.9 -90.  90.                       21030                                   
  100 L  BCANARIO230   11023-5.6                                           11000                                   
  110 L  BSABIA--230   11015-18.                                           11000                                   
  111 L  CSABIA--138   1 995-22.                            40.  10.       11000                                   
  112 L  ASABIA--440   11040-21.                                           11000                                   
  113 L  FSABIA---13   11041-21.                                           11000                                   
  121 L  DCARDEAL-88   1 968-21.                           120.  40.       11000                                   
  131 L  ACURIO--CS5   11039-17.                                     -80.  11000                                   
  132 L  ACURIO--440   11047-16.                                           11000                                   
  133 L  FCURIO---13   11049-16.                                           11000                                   
  134 L  ECURIO---69   1 979-25.                                           11000                                   
  140 L  ESANHACO-69   1 949-27.                            70.  20.   5.  11000                                   
  151 L  CTIZIU--138   1 972-23.                           160.  60.       11000                                   
  160 L  CPARDAL-138   1 978-24.                                      40.  11000                                   
  161 L  EPARDAL--69   1 974-25.                            40.  10.       11000                                   
  170 L  CAZULAO-138   1 979-24.                                           11000                                   
  171 L  EAZULAO--69   1 969-26.                            40.  10.       11000                                   
  180 L  ABICUDO-440   11042-22.                                     -40.  11000                                   
  181 L  EBICUDO--69   11016-27.                           130.  40.       11000                                   
  182 L  FBICUDO--13   11018-27.                                      10.  11000                                   
  190 L  ACHOPIN-440   11050-22.                                     -80.  11000                                   
  191 L  CCHOPIN-138   11017-28.                            90.  20.       11000                                   
  200 L  BTUCANO-230   1 995-1.8                                           21000                                   
  210 L  BGAVIAO-230   1 977-3.7                                           21000                                   
  220 L  BARARA--230   1 995-11.                                           21000                                   
  221 L  AARARA--CS5   11034-13.                                     -80.  21000                                   
  222 L  AARARA--440   11045-14.                                           21000                                   
  223 L  FARARA---13   11048-14.                                           21000                                   
  224 L  CARARA--138   1 961-17.                           110.  30.       21000                                   
  230 L  BPELICAN230   1 999-18.                                           21000                                   
  231 L  APELICAN440   11048-20.                                           21000                                   
  232 L  FPELICANO13   11051-20.                                           21000                                   
  240 L  BCORUJA-230   1 986-20.                            90.  10.       21000                                   
  250 L  BURUBU--230   1 968-14.                                           21000                                   
  251 L  CURUBU--138   1 949-20.                            80.  10.       21000                                   
  260 L  BGARCA--230   1 966-12.                           120.  50.  50.  21000                                   
 1110 L  FSABIA--FIC   11041-21.                                           11000                                   
 1180 L  FBICUDO-FIC   11016-27.                                           11000                                   
 1220 L  FARARA--FIC   11048-14.                                           21000                                   
 1230 L  FPELICANFIC   11051-20.                                           21000                                   
99999
DLIN
(De )d O d(Pa )NcEPM( R% )( X% )(Mvar)(Tap)(Tmn)(Tmx)(Phs)(Bc  )(Cn)(Ce)Ns(Cq)(1)(2)(3)(4)(5)(6)(7)(8)(9)(10 (U) Uop
   11       110 1         3.8525         1.                     99999999  9999                                 1   1
   20       200 1          2.725         1.                     99999999  9999                                 1   1
   21       210 1           3.44         1.                     99999999  9999                                 1   1
  110       111 1           9.17         1.                     99999999  9999                                 1   1
  110      1110 1           4.92         1.                     99999999  9999                                 1   1
  111       170 1     2.41  5.02  1.18                          99999999  9999
  112       180 1      .08   .95 46.42                          99999999  9999
  112      1110 1           -.25         1.                     99999999  9999                                 1   1
  113      1110 1           3.75         1.                     99999999  9999                                 1   1
  131       132 1            -1.                                99999999  9999
  131       221 1      .59  7.16 348.2                          99999999  9999
  134       140 1     2.91    5.   .11                          99999999  9999
  151       160 1     5.08 10.56  2.48                          99999999  9999
  151       160 2     5.08 10.56  2.48                          99999999  9999
  160       161 1           3.92         1.                     99999999  9999                                 1   1
  160       170 1      3.3  6.86  1.61                          99999999  9999
  170       171 1            8.8         1.                     99999999  9999                                 1   1
  180       190 1       .2  2.39 116.1                          99999999  9999
  180      1180 1           7.48         1.                     99999999  9999                                 1   1
  181      1180 1            .02         1.                     99999999  9999                                 1   1
  182      1180 1            2.2         1.                     99999999  9999                                 1   1
  190       191 1          13.27         1.                     99999999  9999                                 1   1
  190       231 1      .31  3.82 185.7                          99999999  9999
  200       210 1     2.18  8.22 14.51                          99999999  9999
  200       220 1     2.46  9.28 16.39                          99999999  9999
  200       220 2     2.46  9.28 16.39                          99999999  9999
  210       260 1      2.3   8.7 15.36                          99999999  9999
  210       260 2      2.3   8.7 15.36                          99999999  9999
  220       224 1           9.25         1.                     99999999  9999                                 1   1
  220       230 1     2.59  9.77 17.24                          99999999  9999
  220      1220 1           4.92         1.                     99999999  9999                                 1   1
  221       222 1            -1.                                99999999  9999
  222      1220 1           -.25         1.                     99999999  9999                                 1   1
  223      1220 1           3.75         1.                     99999999  9999                                 1   1
  230       240 1     1.05  3.96    7.                          99999999  9999
  230       250 1     1.66  6.29 11.09                          99999999  9999
  230      1230 1           4.92         1.                     99999999  9999                                 1   1
  231      1230 1           -.25         1.                     99999999  9999                                 1   1
  232      1230 1           3.75         1.                     99999999  9999                                 1   1
  250       251 1          12.92         1.                     99999999  9999                                 1   1
  250       260 1     1.13  4.25  7.51                          99999999  9999
  250       260 2     1.13  4.25  7.51                          99999999  9999
99999
DGLT
(G (Vmn) (Vmx) (Vmne (Vmxe
 1   .95  1.05   .95  1.05
99999
DARE
(Ar    (Xchg)     (      Identificacao da area       ) (Xmin) (Xmax)
  1        0.     AREA A                                             
  2        0.     AREA B                                             
99999
DGBT
(G ( kV)
 A  440.
 B  230.
 C  138.
 D   88.
 E   69.
 F    1.
99999
FIM
